Version 4
SHEET 1 1904 680
WIRE 640 -48 576 -48
WIRE 576 -32 576 -48
WIRE 1040 -32 1040 -48
WIRE 1040 -32 848 -32
WIRE 1040 -16 1040 -32
WIRE 464 0 464 -16
WIRE 864 32 768 32
WIRE 976 32 944 32
WIRE 576 64 576 48
WIRE 848 80 848 -32
WIRE 464 96 464 80
WIRE 464 96 400 96
WIRE 640 96 640 -48
WIRE 656 96 640 96
WIRE 768 96 768 32
WIRE 768 96 736 96
WIRE 816 96 768 96
WIRE 1136 96 1136 64
WIRE 400 112 400 96
WIRE 464 112 464 96
WIRE 976 112 976 32
WIRE 976 112 880 112
WIRE 1104 112 976 112
WIRE 608 128 576 128
WIRE 768 128 688 128
WIRE 816 128 768 128
WIRE 1216 128 1168 128
WIRE 1328 128 1296 128
WIRE 1360 128 1328 128
WIRE 768 144 768 128
WIRE 1040 144 1040 64
WIRE 1104 144 1040 144
WIRE 576 160 576 128
WIRE 1040 160 1040 144
WIRE 1328 160 1328 128
WIRE 1136 176 1136 160
WIRE 464 208 464 192
WIRE 768 256 768 224
WIRE 1040 256 1040 240
WIRE 576 272 576 240
WIRE 1328 272 1328 240
FLAG 400 112 0
FLAG 464 -16 Vcc+
IOPIN 464 -16 In
FLAG 464 208 Vcc-
IOPIN 464 208 In
FLAG 848 144 Vcc-
IOPIN 848 144 Out
FLAG 768 256 0
FLAG 576 64 0
FLAG 576 272 0
FLAG 1328 272 0
FLAG 1040 -48 Vcc+
IOPIN 1040 -48 Out
FLAG 1040 256 0
FLAG 1360 128 Vout
IOPIN 1360 128 Out
FLAG 576 -48 V-
FLAG 576 128 V+
FLAG 976 112 Vop
FLAG 1040 144 Vref
FLAG 1136 176 Vcc+
IOPIN 1136 176 Out
FLAG 1136 64 0
SYMBOL voltage 464 -16 R0
SYMATTR InstName V1
SYMATTR Value 12
SYMBOL voltage 464 96 R0
SYMATTR InstName V2
SYMATTR Value 12
SYMBOL Opamps\\UniversalOpamp2 848 112 R0
SYMATTR InstName U1
SYMBOL res 960 16 R90
WINDOW 0 0 56 VBottom 2
WINDOW 3 32 56 VTop 2
SYMATTR InstName R4
SYMATTR Value 100k
SYMBOL res 752 80 R90
WINDOW 0 0 56 VBottom 2
WINDOW 3 23 55 VTop 2
SYMATTR InstName R3
SYMATTR Value 10k
SYMBOL res 752 128 R0
WINDOW 3 23 83 Left 2
SYMATTR InstName R2
SYMATTR Value 100k
SYMBOL res 704 112 R90
WINDOW 0 0 56 VBottom 2
WINDOW 3 33 56 VTop 2
SYMATTR InstName R1
SYMATTR Value 10k
SYMBOL voltage 576 144 R0
WINDOW 0 39 45 Left 2
WINDOW 3 9 101 Left 2
WINDOW 123 0 0 Left 0
WINDOW 39 0 0 Left 0
SYMATTR InstName V4
SYMATTR Value SINE(0 2.6 50)
SYMBOL voltage 576 -48 R0
WINDOW 3 21 90 Left 2
WINDOW 123 0 0 Left 0
WINDOW 39 0 0 Left 0
SYMATTR InstName V3
SYMATTR Value SINE(0 2.1 50)
SYMBOL Opamps\\UniversalOpamp2 1136 128 M180
SYMATTR InstName U2
SYMBOL res 1312 112 R90
WINDOW 0 0 56 VBottom 2
WINDOW 3 32 56 VTop 2
SYMATTR InstName R6
SYMATTR Value 7.25k
SYMBOL res 1312 144 R0
SYMATTR InstName R7
SYMATTR Value 2.75k
SYMBOL res 1024 -32 R0
SYMATTR InstName R5
SYMATTR Value 9.8k
SYMBOL res 1024 144 R0
SYMATTR InstName R10
SYMATTR Value 200
TEXT 416 296 Left 2 !.tran 0.05
TEXT 1336 152 Left 2 ;0-3.3V
TEXT 528 312 Left 2 ;Denotes Hall plate 'ends' voltage
TEXT 928 104 Left 2 ;~5V
TEXT 1048 136 Left 2 ;0.24V
TEXT 520 -128 Left 2 ;Differential op-amp configuration
TEXT 1016 -128 Left 2 ;Comparator Configuration
RECTANGLE Normal 656 304 544 -80 3
RECTANGLE Normal 992 336 512 -112 1
RECTANGLE Normal 1424 288 1008 -112 1
